.SUBCKT PP_OUTPUT_XFRMR 1 2 3 4 5
* PUSH PULL OUTPUT XFRMR 
* 5000 OHM PRIMARY
* 8 OHM SECONDARY
* 100H TOTAL PRIMARY INDUCANCE
*
LP1	1	21	50	;Henries
RP1	21	2	70	;ohms
RP2	2	23	70	;ohms
LP2	23	3	50	;Henries
LS1	4	5	0.16	;Henries
CP1 1 3   2NF     ; CAPACITANCE 
KALL LP1 LP2 LS1 .9999875 
.ENDS
